units(length='cm', time='s', quantity='mol', act_energy='cal/mol')

ideal_gas(name='gas',
          elements="H O N Ar He C",
          species="""H     H2    O     OH    H2O   
                     O2    HO2   H2O2  N2    AR    
                     HE    CO    CO2""",
          reactions='all',
          initial_state=state(temperature=300.0, pressure=OneAtm))

#-------------------------------------------------------------------------------
# Species data
#-------------------------------------------------------------------------------

species(name='H',
        atoms='H:1',
        thermo=(NASA([300.00, 1000.00],
                     [ 2.50000000E+00,  0.00000000E+00,  0.00000000E+00,
                       0.00000000E+00,  0.00000000E+00,  2.54716300E+04,
                      -4.60117600E-01]),
                NASA([1000.00, 5000.00],
                     [ 2.50000000E+00,  0.00000000E+00,  0.00000000E+00,
                       0.00000000E+00,  0.00000000E+00,  2.54716300E+04,
                      -4.60117600E-01])),
        note='120186')

species(name='H2',
        atoms='H:2',
        thermo=(NASA([300.00, 1000.00],
                     [ 3.29812400E+00,  8.24944200E-04, -8.14301500E-07,
                      -9.47543400E-11,  4.13487200E-13, -1.01252100E+03,
                      -3.29409400E+00]),
                NASA([1000.00, 5000.00],
                     [ 2.99142300E+00,  7.00064400E-04, -5.63382900E-08,
                      -9.23157800E-12,  1.58275200E-15, -8.35034000E+02,
                      -1.35511000E+00])),
        note='121286')

species(name='O',
        atoms='O:1',
        thermo=(NASA([300.00, 1000.00],
                     [ 2.94642900E+00, -1.63816600E-03,  2.42103200E-06,
                      -1.60284300E-09,  3.89069600E-13,  2.91476400E+04,
                       2.96399500E+00]),
                NASA([1000.00, 5000.00],
                     [ 2.54206000E+00, -2.75506200E-05, -3.10280300E-09,
                       4.55106700E-12, -4.36805200E-16,  2.92308000E+04,
                       4.92030800E+00])),
        note='120186')

species(name='OH',
        atoms='H:1 O:1',
        thermo=(NASA([200.00, 1000.00],
                     [ 4.12530561E+00, -3.22544939E-03,  6.52764691E-06,
                      -5.79853643E-09,  2.06237379E-12,  3.34630913E+03,
                      -6.90432960E-01]),
                NASA([1000.00, 6000.00],
                     [ 2.86472886E+00,  1.05650448E-03, -2.59082758E-07,
                       3.05218674E-11, -1.33195876E-15,  3.68362875E+03,
                       5.70164073E+00])),
        note='S9/01')

species(name='H2O',
        atoms='H:2 O:1',
        thermo=(NASA([300.00, 1000.00],
                     [ 3.38684200E+00,  3.47498200E-03, -6.35469600E-06,
                       6.96858100E-09, -2.50658800E-12, -3.02081100E+04,
                       2.59023300E+00]),
                NASA([1000.00, 5000.00],
                     [ 2.67214600E+00,  3.05629300E-03, -8.73026000E-07,
                       1.20099600E-10, -6.39161800E-15, -2.98992100E+04,
                       6.86281700E+00])),
        note='20387')

species(name='O2',
        atoms='O:2',
        thermo=(NASA([300.00, 1000.00],
                     [ 3.21293600E+00,  1.12748600E-03, -5.75615000E-07,
                       1.31387700E-09, -8.76855400E-13, -1.00524900E+03,
                       6.03473800E+00]),
                NASA([1000.00, 5000.00],
                     [ 3.69757800E+00,  6.13519700E-04, -1.25884200E-07,
                       1.77528100E-11, -1.13643500E-15, -1.23393000E+03,
                       3.18916600E+00])),
        note='121386')

species(name='HO2',
        atoms='H:1 O:2',
        thermo=(NASA([200.00, 1000.00],
                     [ 4.30179801E+00, -4.74912051E-03,  2.11582891E-05,
                      -2.42763894E-08,  9.29225124E-12,  2.94808040E+02,
                       3.71666245E+00]),
                NASA([1000.00, 3500.00],
                     [ 4.01721090E+00,  2.23982013E-03, -6.33658150E-07,
                       1.14246370E-10, -1.07908535E-14,  1.11856713E+02,
                       3.78510215E+00])),
        note='L5/89')

species(name='H2O2',
        atoms='H:2 O:2',
        thermo=(NASA([300.00, 1000.00],
                     [ 3.38875400E+00,  6.56922600E-03, -1.48501300E-07,
                      -4.62580600E-09,  2.47151500E-12, -1.76631500E+04,
                       6.78536300E+00]),
                NASA([1000.00, 5000.00],
                     [ 4.57316700E+00,  4.33613600E-03, -1.47468900E-06,
                       2.34890400E-10, -1.43165400E-14, -1.80069600E+04,
                       5.01137000E-01])),
        note='120186')

species(name='N2',
        atoms='N:2',
        thermo=(NASA([300.00, 1000.00],
                     [ 3.29867700E+00,  1.40824000E-03, -3.96322200E-06,
                       5.64151500E-09, -2.44485500E-12, -1.02090000E+03,
                       3.95037200E+00]),
                NASA([1000.00, 5000.00],
                     [ 2.92664000E+00,  1.48797700E-03, -5.68476100E-07,
                       1.00970400E-10, -6.75335100E-15, -9.22797700E+02,
                       5.98052800E+00])),
        note='121286')

species(name='AR',
        atoms='Ar:1',
        thermo=(NASA([300.00, 1000.00],
                     [ 2.50000000E+00,  0.00000000E+00,  0.00000000E+00,
                       0.00000000E+00,  0.00000000E+00, -7.45375000E+02,
                       4.36600100E+00]),
                NASA([1000.00, 5000.00],
                     [ 2.50000000E+00,  0.00000000E+00,  0.00000000E+00,
                       0.00000000E+00,  0.00000000E+00, -7.45375000E+02,
                       4.36600100E+00])),
        note='120186')

species(name='HE',
        atoms='He:1',
        thermo=(NASA([300.00, 1000.00],
                     [ 2.50000000E+00,  0.00000000E+00,  0.00000000E+00,
                       0.00000000E+00,  0.00000000E+00, -7.45375000E+02,
                       9.15348800E-01]),
                NASA([1000.00, 5000.00],
                     [ 2.50000000E+00,  0.00000000E+00,  0.00000000E+00,
                       0.00000000E+00,  0.00000000E+00, -7.45375000E+02,
                       9.15348900E-01])),
        note='120186')

species(name='CO',
        atoms='C:1 O:1',
        thermo=(NASA([300.00, 1000.00],
                     [ 3.26245200E+00,  1.51194100E-03, -3.88175500E-06,
                       5.58194400E-09, -2.47495100E-12, -1.43105400E+04,
                       4.84889700E+00]),
                NASA([1000.00, 5000.00],
                     [ 3.02507800E+00,  1.44268900E-03, -5.63082800E-07,
                       1.01858100E-10, -6.91095200E-15, -1.42683500E+04,
                       6.10821800E+00])),
        note='121286')

species(name='CO2',
        atoms='C:1 O:2',
        thermo=(NASA([300.00, 1000.00],
                     [ 2.27572500E+00,  9.92207200E-03, -1.04091100E-05,
                       6.86668700E-09, -2.11728000E-12, -4.83731400E+04,
                       1.01884900E+01]),
                NASA([1000.00, 5000.00],
                     [ 4.45362300E+00,  3.14016900E-03, -1.27841100E-06,
                       2.39399700E-10, -1.66903300E-14, -4.89669600E+04,
                      -9.55395900E-01])),
        note='121286')

#-------------------------------------------------------------------------------
# Reaction data
#-------------------------------------------------------------------------------

# Reaction 1
reaction('H + O2 <=> O + OH', [1.040000e+14, 0.0, 15286.0])

# Reaction 2
reaction('O + H2 <=> H + OH', [3.818000e+12, 0.0, 7948.0],
         options='duplicate')

# Reaction 3
reaction('O + H2 <=> H + OH', [8.792000e+14, 0.0, 19170.0],
         options='duplicate')

# Reaction 4
reaction('H2 + OH <=> H2O + H', [2.160000e+08, 1.51, 3430.0])

# Reaction 5
reaction('OH + OH <=> O + H2O', [3.340000e+04, 2.42, -1930.0])

# Reaction 6
three_body_reaction('H2 + M <=> H + H + M', [4.577000e+19, -1.4, 104380.0],
                    efficiencies='CO2:3.8 CO:1.9 H2:2.5 H2O:12.0 AR:0.0 HE:0.0')

# Reaction 7
reaction('H2 + AR <=> H + H + AR', [5.840000e+18, -1.1, 104380.0])

# Reaction 8
reaction('H2 + HE <=> H + H + HE', [5.840000e+18, -1.1, 104380.0])

# Reaction 9
three_body_reaction('O + O + M <=> O2 + M', [6.165000e+15, -0.5, 0.0],
                    efficiencies='CO2:3.8 CO:1.9 H2:2.5 H2O:12.0 AR:0.0 HE:0.0')

# Reaction 10
reaction('O + O + AR <=> O2 + AR', [1.886000e+13, 0.0, -1788.0])

# Reaction 11
reaction('O + O + HE <=> O2 + HE', [1.886000e+13, 0.0, -1788.0])

# Reaction 12
three_body_reaction('O + H + M <=> OH + M', [4.714000e+18, -1.0, 0.0],
                    efficiencies='CO2:3.8 CO:1.9 H2:2.5 H2O:12.0 AR:0.75 HE:0.75')

# Reaction 13
three_body_reaction('H2O + M <=> H + OH + M', [6.064000e+27, -3.322, 120790.0],
                    efficiencies='CO2:3.8 CO:1.9 H2:3.0 H2O:0.0 N2:2.0 O2:1.5 HE:1.1')

# Reaction 14
reaction('H2O + H2O <=> H + OH + H2O', [1.006000e+26, -2.44, 120180.0])

# Reaction 15
falloff_reaction('H + O2 (+ M) <=> HO2 (+ M)',
                 kf=[4.650840e+12, 0.44, 0.0],
                 kf0=[6.366000e+20, -1.72, 524.8],
                 efficiencies='CO2:3.8 CO:1.9 H2:2.0 H2O:14.0 AR:0.67 O2:0.78 HE:0.8',
                 falloff=Troe(A=0.5, T3=1e-30, T1=1e+30))

# Reaction 16
reaction('HO2 + H <=> H2 + O2', [2.750000e+06, 2.09, -1451.0])

# Reaction 17
reaction('HO2 + H <=> OH + OH', [7.079000e+13, 0.0, 295.0])

# Reaction 18
reaction('HO2 + O <=> O2 + OH', [2.850000e+10, 1.0, -723.93])

# Reaction 19
reaction('HO2 + OH <=> H2O + O2', [2.890000e+13, 0.0, -497.0])

# Reaction 20
reaction('HO2 + HO2 <=> H2O2 + O2', [4.200000e+14, 0.0, 11982.0],
         options='duplicate')

# Reaction 21
reaction('HO2 + HO2 <=> H2O2 + O2', [1.300000e+11, 0.0, -1629.3],
         options='duplicate')

# Reaction 22
falloff_reaction('H2O2 (+ M) <=> OH + OH (+ M)',
                 kf=[2.000000e+12, 0.9, 48749.0],
                 kf0=[2.490000e+24, -2.3, 48749.0],
                 efficiencies='CO2:1.6 CO:2.8 H2O2:7.7 H2:3.7 H2O:7.5 N2:1.5 O2:1.2 HE:0.65',
                 falloff=Troe(A=0.43, T3=1e-30, T1=1e+30))

# Reaction 23
reaction('H2O2 + H <=> H2O + OH', [2.410000e+13, 0.0, 3970.0])

# Reaction 24
reaction('H2O2 + H <=> HO2 + H2', [4.820000e+13, 0.0, 7950.0])

# Reaction 25
reaction('H2O2 + O <=> OH + HO2', [9.550000e+06, 2.0, 3970.0])

# Reaction 26
reaction('H2O2 + OH <=> HO2 + H2O', [1.740000e+12, 0.0, 318.0],
         options='duplicate')

# Reaction 27
reaction('H2O2 + OH <=> HO2 + H2O', [7.590000e+13, 0.0, 7270.0],
         options='duplicate')
